/*--------------------------------*- C++ -*----------------------------------*\
| =========                 |                                                 |
| \\      /  F ield         | OpenFOAM: The Open Source CFD Toolbox           |
|  \\    /   O peration     | Version:  v2106                                 |
|   \\  /    A nd           | Website:  www.openfoam.com                      |
|    \\/     M anipulation  |                                                 |
\*---------------------------------------------------------------------------*/
FoamFile
{
    version     2.0;
    format      ascii;
    class       dictionary;
    object      fvSolution;
}
// * * * * * * * * * * * * * * * * * * * * * * * * * * * * * * * * * * * * * //

solvers
{
    p
    {
        solver          GAMG;
        smoother        GaussSeidel;
//        tolerance       1e-7;
//        relTol          0.1;
        tolerance       0;
        relTol          0;
        maxIter         12;
        coarsestLevelCorr
        {
            solver          PCG;
            preconditioner  DIC;
            minIter         35;
            maxIter         35;
        }
    }

    Phi
    {
        $p;
    }

    U
    {
        solver          smoothSolver;
        smoother        GaussSeidel;
//        tolerance       1e-8;
//        relTol          0.1;
        tolerance       0;
        relTol          0;
        maxIter         15; 
        nSweeps         1;
    }

    k
    {
        solver          smoothSolver;
        smoother        GaussSeidel;
//        tolerance       1e-8;
//        relTol          0.1;
        tolerance       0;
        relTol          0;
        maxIter         8;
        nSweeps         1;
    }

    omega
    {
        solver          smoothSolver;
        smoother        GaussSeidel;
//        tolerance       1e-8;
//        relTol          0.1;
        tolerance       0;
        relTol          0;
        maxIter         8;
        nSweeps         1;
    }
}

SIMPLE
{
    nNonOrthogonalCorrectors 0;
    consistent yes;
}

potentialFlow
{
    nNonOrthogonalCorrectors 10;
}

relaxationFactors
{
    equations
    {
        U               0.9;
        k               0.6;
        omega           0.6;
    }
}

cache
{
    grad(U);
}


// ************************************************************************* //
